Version 4
SHEET 1 4452 4696
WIRE -800 -2048 -928 -2048
WIRE -752 -2048 -752 -2096
WIRE -752 -2048 -800 -2048
WIRE -704 -2048 -752 -2048
WIRE -576 -2048 -704 -2048
WIRE -224 -2048 -352 -2048
WIRE -176 -2048 -176 -2096
WIRE -176 -2048 -224 -2048
WIRE -128 -2048 -176 -2048
WIRE 0 -2048 -128 -2048
WIRE 1152 -2048 1024 -2048
WIRE 1200 -2048 1200 -2096
WIRE 1200 -2048 1152 -2048
WIRE 1248 -2048 1200 -2048
WIRE 1376 -2048 1248 -2048
WIRE 1728 -2048 1600 -2048
WIRE 1776 -2048 1776 -2096
WIRE 1776 -2048 1728 -2048
WIRE 1824 -2048 1776 -2048
WIRE 1952 -2048 1824 -2048
WIRE -976 -2032 -1008 -2032
WIRE -496 -2032 -528 -2032
WIRE -400 -2032 -432 -2032
WIRE 80 -2032 48 -2032
WIRE 976 -2032 944 -2032
WIRE 1456 -2032 1424 -2032
WIRE 1552 -2032 1520 -2032
WIRE 2032 -2032 2000 -2032
WIRE -800 -1952 -928 -1952
WIRE -752 -1952 -800 -1952
WIRE -704 -1952 -752 -1952
WIRE -576 -1952 -704 -1952
WIRE -224 -1952 -352 -1952
WIRE -176 -1952 -224 -1952
WIRE -128 -1952 -176 -1952
WIRE 0 -1952 -128 -1952
WIRE 1152 -1952 1024 -1952
WIRE 1200 -1952 1152 -1952
WIRE 1248 -1952 1200 -1952
WIRE 1376 -1952 1248 -1952
WIRE 1728 -1952 1600 -1952
WIRE 1776 -1952 1728 -1952
WIRE 1824 -1952 1776 -1952
WIRE 1952 -1952 1824 -1952
WIRE -752 -1920 -752 -1952
WIRE -448 -1920 -752 -1920
WIRE -176 -1920 -176 -1952
WIRE -16 -1920 -176 -1920
WIRE 1200 -1920 1200 -1952
WIRE 1504 -1920 1200 -1920
WIRE 1776 -1920 1776 -1952
WIRE 1936 -1920 1776 -1920
WIRE -752 -1904 -752 -1920
WIRE -176 -1904 -176 -1920
WIRE 1200 -1904 1200 -1920
WIRE 1776 -1904 1776 -1920
WIRE -976 -1824 -976 -2032
WIRE -800 -1824 -976 -1824
WIRE -432 -1824 -432 -2032
WIRE -224 -1824 -432 -1824
WIRE 976 -1824 976 -2032
WIRE 1152 -1824 976 -1824
WIRE 1520 -1824 1520 -2032
WIRE 1728 -1824 1520 -1824
WIRE -800 -1728 -832 -1728
WIRE -224 -1728 -256 -1728
WIRE 1152 -1728 1120 -1728
WIRE 1728 -1728 1696 -1728
WIRE -432 -1696 -432 -1824
WIRE -432 -1696 -1008 -1696
WIRE 1520 -1696 1520 -1824
WIRE 1520 -1696 944 -1696
WIRE -800 -1632 -832 -1632
WIRE -224 -1632 -256 -1632
WIRE 1152 -1632 1120 -1632
WIRE 1728 -1632 1696 -1632
WIRE -800 -1536 -832 -1536
WIRE -224 -1536 -256 -1536
WIRE 1152 -1536 1120 -1536
WIRE 1728 -1536 1696 -1536
WIRE -752 -1504 -752 -1520
WIRE -176 -1504 -176 -1520
WIRE 1200 -1504 1200 -1520
WIRE 1776 -1504 1776 -1520
WIRE -16 -1488 -16 -1920
WIRE 208 -1488 -16 -1488
WIRE 1936 -1488 1936 -1920
WIRE 2160 -1488 1936 -1488
WIRE -448 -1472 -448 -1920
WIRE 160 -1472 -448 -1472
WIRE 1504 -1472 1504 -1920
WIRE 2112 -1472 1504 -1472
WIRE 144 -1456 -448 -1456
WIRE 2096 -1456 1504 -1456
WIRE -800 -1376 -928 -1376
WIRE -752 -1376 -752 -1424
WIRE -752 -1376 -800 -1376
WIRE -704 -1376 -752 -1376
WIRE -576 -1376 -704 -1376
WIRE -224 -1376 -352 -1376
WIRE -176 -1376 -176 -1424
WIRE -176 -1376 -224 -1376
WIRE -128 -1376 -176 -1376
WIRE 0 -1376 -128 -1376
WIRE 1152 -1376 1024 -1376
WIRE 1200 -1376 1200 -1424
WIRE 1200 -1376 1152 -1376
WIRE 1248 -1376 1200 -1376
WIRE 1376 -1376 1248 -1376
WIRE 1728 -1376 1600 -1376
WIRE 1776 -1376 1776 -1424
WIRE 1776 -1376 1728 -1376
WIRE 1824 -1376 1776 -1376
WIRE 1952 -1376 1824 -1376
WIRE -976 -1360 -1008 -1360
WIRE -496 -1360 -528 -1360
WIRE -400 -1360 -432 -1360
WIRE 80 -1360 48 -1360
WIRE 976 -1360 944 -1360
WIRE 1456 -1360 1424 -1360
WIRE 1552 -1360 1520 -1360
WIRE 2032 -1360 2000 -1360
WIRE -800 -1280 -928 -1280
WIRE -752 -1280 -800 -1280
WIRE -704 -1280 -752 -1280
WIRE -576 -1280 -704 -1280
WIRE -224 -1280 -352 -1280
WIRE -176 -1280 -224 -1280
WIRE -128 -1280 -176 -1280
WIRE 0 -1280 -128 -1280
WIRE 1152 -1280 1024 -1280
WIRE 1200 -1280 1152 -1280
WIRE 1248 -1280 1200 -1280
WIRE 1376 -1280 1248 -1280
WIRE 1728 -1280 1600 -1280
WIRE 1776 -1280 1728 -1280
WIRE 1824 -1280 1776 -1280
WIRE 1952 -1280 1824 -1280
WIRE -752 -1248 -752 -1280
WIRE -448 -1248 -448 -1456
WIRE -448 -1248 -752 -1248
WIRE -176 -1248 -176 -1280
WIRE -80 -1248 -176 -1248
WIRE 144 -1248 144 -1456
WIRE 144 -1248 16 -1248
WIRE 1200 -1248 1200 -1280
WIRE 1504 -1248 1504 -1456
WIRE 1504 -1248 1200 -1248
WIRE 1776 -1248 1776 -1280
WIRE 1872 -1248 1776 -1248
WIRE 2096 -1248 2096 -1456
WIRE 2096 -1248 1968 -1248
WIRE -752 -1232 -752 -1248
WIRE -176 -1232 -176 -1248
WIRE 1200 -1232 1200 -1248
WIRE 1776 -1232 1776 -1248
WIRE 160 -1184 160 -1472
WIRE 160 -1184 112 -1184
WIRE 2112 -1184 2112 -1472
WIRE 2112 -1184 2064 -1184
WIRE -976 -1152 -976 -1360
WIRE -800 -1152 -976 -1152
WIRE -432 -1152 -432 -1360
WIRE -224 -1152 -432 -1152
WIRE 976 -1152 976 -1360
WIRE 1152 -1152 976 -1152
WIRE 1520 -1152 1520 -1360
WIRE 1728 -1152 1520 -1152
WIRE 64 -1136 -32 -1136
WIRE 160 -1136 64 -1136
WIRE 256 -1136 160 -1136
WIRE 304 -1136 304 -1184
WIRE 304 -1136 256 -1136
WIRE 352 -1136 304 -1136
WIRE 448 -1136 352 -1136
WIRE 544 -1136 448 -1136
WIRE 640 -1136 544 -1136
WIRE 2016 -1136 1920 -1136
WIRE 2112 -1136 2016 -1136
WIRE 2208 -1136 2112 -1136
WIRE 2256 -1136 2256 -1184
WIRE 2256 -1136 2208 -1136
WIRE 2304 -1136 2256 -1136
WIRE 2400 -1136 2304 -1136
WIRE 2496 -1136 2400 -1136
WIRE 2592 -1136 2496 -1136
WIRE -80 -1120 -80 -1248
WIRE 16 -1120 16 -1248
WIRE 112 -1120 112 -1184
WIRE 208 -1120 208 -1488
WIRE 304 -1120 304 -1136
WIRE 1872 -1120 1872 -1248
WIRE 1968 -1120 1968 -1248
WIRE 2064 -1120 2064 -1184
WIRE 2160 -1120 2160 -1488
WIRE -800 -1056 -832 -1056
WIRE -224 -1056 -256 -1056
WIRE 1152 -1056 1120 -1056
WIRE 1728 -1056 1696 -1056
WIRE 64 -1040 -32 -1040
WIRE 160 -1040 64 -1040
WIRE 256 -1040 160 -1040
WIRE 304 -1040 256 -1040
WIRE 352 -1040 304 -1040
WIRE 448 -1040 352 -1040
WIRE 544 -1040 448 -1040
WIRE 640 -1040 544 -1040
WIRE 2016 -1040 1920 -1040
WIRE 2112 -1040 2016 -1040
WIRE 2208 -1040 2112 -1040
WIRE 2256 -1040 2208 -1040
WIRE 2304 -1040 2256 -1040
WIRE 2400 -1040 2304 -1040
WIRE 2496 -1040 2400 -1040
WIRE 2592 -1040 2496 -1040
WIRE -432 -1024 -432 -1152
WIRE -432 -1024 -1008 -1024
WIRE 1520 -1024 1520 -1152
WIRE 1520 -1024 944 -1024
WIRE 112 -1008 112 -1120
WIRE 192 -1008 112 -1008
WIRE 304 -1008 304 -1040
WIRE 736 -1008 304 -1008
WIRE 2064 -1008 2064 -1120
WIRE 2144 -1008 2064 -1008
WIRE 2256 -1008 2256 -1040
WIRE 2688 -1008 2256 -1008
WIRE 16 -992 16 -1120
WIRE 176 -992 16 -992
WIRE 304 -992 304 -1008
WIRE 1968 -992 1968 -1120
WIRE 2128 -992 1968 -992
WIRE 2256 -992 2256 -1008
WIRE -80 -976 -80 -1120
WIRE 160 -976 -80 -976
WIRE 496 -976 496 -1120
WIRE 496 -976 416 -976
WIRE 1872 -976 1872 -1120
WIRE 2112 -976 1872 -976
WIRE 2448 -976 2448 -1120
WIRE 2448 -976 2368 -976
WIRE -800 -960 -832 -960
WIRE -224 -960 -256 -960
WIRE 592 -960 592 -1120
WIRE 592 -960 432 -960
WIRE 1152 -960 1120 -960
WIRE 1728 -960 1696 -960
WIRE 2544 -960 2544 -1120
WIRE 2544 -960 2384 -960
WIRE 688 -944 688 -1120
WIRE 688 -944 448 -944
WIRE 2640 -944 2640 -1120
WIRE 2640 -944 2400 -944
WIRE 208 -912 208 -1120
WIRE 256 -912 208 -912
WIRE 2160 -912 2160 -1120
WIRE 2208 -912 2160 -912
WIRE -800 -864 -832 -864
WIRE -224 -864 -256 -864
WIRE 1152 -864 1120 -864
WIRE 1728 -864 1696 -864
WIRE -752 -832 -752 -848
WIRE -176 -832 -176 -848
WIRE 1200 -832 1200 -848
WIRE 1776 -832 1776 -848
WIRE 192 -816 192 -1008
WIRE 256 -816 192 -816
WIRE 2144 -816 2144 -1008
WIRE 2208 -816 2144 -816
WIRE 176 -720 176 -992
WIRE 256 -720 176 -720
WIRE 2128 -720 2128 -992
WIRE 2208 -720 2128 -720
WIRE -800 -704 -928 -704
WIRE -752 -704 -752 -752
WIRE -752 -704 -800 -704
WIRE -704 -704 -752 -704
WIRE -576 -704 -704 -704
WIRE -224 -704 -352 -704
WIRE -176 -704 -176 -752
WIRE -176 -704 -224 -704
WIRE -128 -704 -176 -704
WIRE 0 -704 -128 -704
WIRE 1152 -704 1024 -704
WIRE 1200 -704 1200 -752
WIRE 1200 -704 1152 -704
WIRE 1248 -704 1200 -704
WIRE 1376 -704 1248 -704
WIRE 1728 -704 1600 -704
WIRE 1776 -704 1776 -752
WIRE 1776 -704 1728 -704
WIRE 1824 -704 1776 -704
WIRE 1952 -704 1824 -704
WIRE -976 -688 -1008 -688
WIRE -496 -688 -528 -688
WIRE -400 -688 -432 -688
WIRE 80 -688 48 -688
WIRE 976 -688 944 -688
WIRE 1456 -688 1424 -688
WIRE 1552 -688 1520 -688
WIRE 2032 -688 2000 -688
WIRE 160 -624 160 -976
WIRE 256 -624 160 -624
WIRE 2112 -624 2112 -976
WIRE 2208 -624 2112 -624
WIRE -800 -608 -928 -608
WIRE -752 -608 -800 -608
WIRE -704 -608 -752 -608
WIRE -576 -608 -704 -608
WIRE -224 -608 -352 -608
WIRE -176 -608 -224 -608
WIRE -128 -608 -176 -608
WIRE 0 -608 -128 -608
WIRE 1152 -608 1024 -608
WIRE 1200 -608 1152 -608
WIRE 1248 -608 1200 -608
WIRE 1376 -608 1248 -608
WIRE 1728 -608 1600 -608
WIRE 1776 -608 1728 -608
WIRE 1824 -608 1776 -608
WIRE 1952 -608 1824 -608
WIRE -752 -576 -752 -608
WIRE -448 -576 -752 -576
WIRE -176 -576 -176 -608
WIRE 208 -576 -176 -576
WIRE 1200 -576 1200 -608
WIRE 1504 -576 1200 -576
WIRE 1776 -576 1776 -608
WIRE 2160 -576 1776 -576
WIRE -752 -560 -752 -576
WIRE -176 -560 -176 -576
WIRE 1200 -560 1200 -576
WIRE 1776 -560 1776 -576
WIRE 400 -528 400 -1120
WIRE 400 -528 352 -528
WIRE 464 -528 400 -528
WIRE 2352 -528 2352 -1120
WIRE 2352 -528 2304 -528
WIRE 2416 -528 2352 -528
WIRE -976 -480 -976 -688
WIRE -800 -480 -976 -480
WIRE -432 -480 -432 -688
WIRE -224 -480 -432 -480
WIRE 976 -480 976 -688
WIRE 1152 -480 976 -480
WIRE 1520 -480 1520 -688
WIRE 1728 -480 1520 -480
WIRE -2352 -432 -2352 -448
WIRE 416 -432 416 -976
WIRE 416 -432 352 -432
WIRE 480 -432 416 -432
WIRE 2368 -432 2368 -976
WIRE 2368 -432 2304 -432
WIRE 2432 -432 2368 -432
WIRE -2400 -416 -2448 -416
WIRE -800 -384 -832 -384
WIRE -224 -384 -256 -384
WIRE 1152 -384 1120 -384
WIRE 1728 -384 1696 -384
WIRE -2592 -352 -2592 -384
WIRE -432 -352 -432 -480
WIRE -432 -352 -1008 -352
WIRE 1520 -352 1520 -480
WIRE 1520 -352 944 -352
WIRE 432 -336 432 -960
WIRE 432 -336 352 -336
WIRE 496 -336 432 -336
WIRE 2384 -336 2384 -960
WIRE 2384 -336 2304 -336
WIRE 2448 -336 2384 -336
WIRE -2448 -320 -2448 -416
WIRE -2448 -320 -2480 -320
WIRE -2352 -320 -2352 -336
WIRE -2320 -320 -2352 -320
WIRE -2352 -304 -2352 -320
WIRE -800 -288 -832 -288
WIRE -224 -288 -256 -288
WIRE 1152 -288 1120 -288
WIRE 1728 -288 1696 -288
WIRE -2592 -240 -2592 -272
WIRE 448 -240 448 -944
WIRE 448 -240 352 -240
WIRE 2400 -240 2400 -944
WIRE 2400 -240 2304 -240
WIRE 2464 -240 2400 -240
WIRE -2448 -224 -2448 -320
WIRE -2400 -224 -2448 -224
WIRE 304 -208 304 -224
WIRE 2256 -208 2256 -224
WIRE -2352 -192 -2352 -208
WIRE -800 -192 -832 -192
WIRE -224 -192 -256 -192
WIRE 1152 -192 1120 -192
WIRE 1728 -192 1696 -192
WIRE -2096 -176 -2096 -240
WIRE -752 -160 -752 -176
WIRE -176 -160 -176 -176
WIRE 208 -160 208 -576
WIRE 464 -160 464 -528
WIRE 464 -160 208 -160
WIRE 1200 -160 1200 -176
WIRE 1776 -160 1776 -176
WIRE 2160 -160 2160 -576
WIRE 2416 -160 2416 -528
WIRE 2416 -160 2160 -160
WIRE -448 -144 -448 -576
WIRE 480 -144 480 -432
WIRE 480 -144 -448 -144
WIRE 1504 -144 1504 -576
WIRE 2432 -144 2432 -432
WIRE 2432 -144 1504 -144
WIRE 496 -128 496 -336
WIRE 496 -128 -448 -128
WIRE 2448 -128 2448 -336
WIRE 2448 -128 1504 -128
WIRE -2352 -112 -2352 -128
WIRE 448 -112 448 -240
WIRE 448 -112 256 -112
WIRE 2464 -112 2464 -240
WIRE 2464 -112 2208 -112
WIRE -2400 -96 -2448 -96
WIRE -2592 -32 -2592 -64
WIRE -800 -32 -928 -32
WIRE -752 -32 -752 -80
WIRE -752 -32 -800 -32
WIRE -704 -32 -752 -32
WIRE -576 -32 -704 -32
WIRE -224 -32 -352 -32
WIRE -176 -32 -176 -80
WIRE -176 -32 -224 -32
WIRE -128 -32 -176 -32
WIRE 0 -32 -128 -32
WIRE 1152 -32 1024 -32
WIRE 1200 -32 1200 -80
WIRE 1200 -32 1152 -32
WIRE 1248 -32 1200 -32
WIRE 1376 -32 1248 -32
WIRE 1728 -32 1600 -32
WIRE 1776 -32 1776 -80
WIRE 1776 -32 1728 -32
WIRE 1824 -32 1776 -32
WIRE 1952 -32 1824 -32
WIRE -976 -16 -1008 -16
WIRE -496 -16 -528 -16
WIRE -400 -16 -432 -16
WIRE 80 -16 48 -16
WIRE 976 -16 944 -16
WIRE 1456 -16 1424 -16
WIRE 1552 -16 1520 -16
WIRE 2032 -16 2000 -16
WIRE -2448 0 -2448 -96
WIRE -2448 0 -2480 0
WIRE -2352 0 -2352 -16
WIRE -2320 0 -2352 0
WIRE -2096 0 -2096 -96
WIRE -2352 16 -2352 0
WIRE -800 64 -928 64
WIRE -752 64 -800 64
WIRE -704 64 -752 64
WIRE -576 64 -704 64
WIRE -224 64 -352 64
WIRE -176 64 -224 64
WIRE -128 64 -176 64
WIRE 0 64 -128 64
WIRE 1152 64 1024 64
WIRE 1200 64 1152 64
WIRE 1248 64 1200 64
WIRE 1376 64 1248 64
WIRE 1728 64 1600 64
WIRE 1776 64 1728 64
WIRE 1824 64 1776 64
WIRE 1952 64 1824 64
WIRE -2592 80 -2592 48
WIRE -2448 96 -2448 0
WIRE -2400 96 -2448 96
WIRE -752 96 -752 64
WIRE -448 96 -448 -128
WIRE -448 96 -752 96
WIRE -176 96 -176 64
WIRE 256 96 256 -112
WIRE 256 96 -176 96
WIRE 1200 96 1200 64
WIRE 1504 96 1504 -128
WIRE 1504 96 1200 96
WIRE 1776 96 1776 64
WIRE 2208 96 2208 -112
WIRE 2208 96 1776 96
WIRE -752 112 -752 96
WIRE -176 112 -176 96
WIRE 1200 112 1200 96
WIRE 1776 112 1776 96
WIRE -2352 128 -2352 112
WIRE -976 192 -976 -16
WIRE -800 192 -976 192
WIRE -432 192 -432 -16
WIRE -224 192 -432 192
WIRE 976 192 976 -16
WIRE 1152 192 976 192
WIRE 1520 192 1520 -16
WIRE 1728 192 1520 192
WIRE -2352 208 -2352 192
WIRE -2400 224 -2448 224
WIRE -2592 272 -2592 240
WIRE -800 288 -832 288
WIRE -224 288 -256 288
WIRE 1152 288 1120 288
WIRE 1728 288 1696 288
WIRE -2448 320 -2448 224
WIRE -2448 320 -2480 320
WIRE -2352 320 -2352 304
WIRE -2320 320 -2352 320
WIRE -432 320 -432 192
WIRE -432 320 -1008 320
WIRE 1520 320 1520 192
WIRE 1520 320 944 320
WIRE -2352 336 -2352 320
WIRE -1568 368 -1568 336
WIRE -1488 368 -1488 336
WIRE -1408 368 -1408 336
WIRE -1328 368 -1328 336
WIRE -2592 384 -2592 352
WIRE -800 384 -832 384
WIRE -224 384 -256 384
WIRE 1152 384 1120 384
WIRE 1728 384 1696 384
WIRE -2448 416 -2448 320
WIRE -2400 416 -2448 416
WIRE -2352 448 -2352 432
WIRE -1568 480 -1568 448
WIRE -1488 480 -1488 448
WIRE -1408 480 -1408 448
WIRE -1328 480 -1328 448
WIRE -800 480 -832 480
WIRE -224 480 -256 480
WIRE 1152 480 1120 480
WIRE 1728 480 1696 480
WIRE -752 512 -752 496
WIRE -176 512 -176 496
WIRE 1200 512 1200 496
WIRE 1776 512 1776 496
WIRE -1568 624 -1568 592
WIRE -1488 624 -1488 592
WIRE -1408 624 -1408 592
WIRE -1328 624 -1328 592
WIRE -1568 736 -1568 704
WIRE -1488 736 -1488 704
WIRE -1408 736 -1408 704
WIRE -1328 736 -1328 704
WIRE -800 800 -928 800
WIRE -752 800 -752 752
WIRE -752 800 -800 800
WIRE -704 800 -752 800
WIRE -576 800 -704 800
WIRE -224 800 -352 800
WIRE -176 800 -176 752
WIRE -176 800 -224 800
WIRE -128 800 -176 800
WIRE 0 800 -128 800
WIRE 1168 800 1040 800
WIRE 1216 800 1216 752
WIRE 1216 800 1168 800
WIRE 1264 800 1216 800
WIRE 1392 800 1264 800
WIRE 1744 800 1616 800
WIRE 1792 800 1792 752
WIRE 1792 800 1744 800
WIRE 1840 800 1792 800
WIRE 1968 800 1840 800
WIRE -976 816 -1008 816
WIRE -496 816 -528 816
WIRE -400 816 -432 816
WIRE 80 816 48 816
WIRE 992 816 960 816
WIRE 1472 816 1440 816
WIRE 1568 816 1536 816
WIRE 2048 816 2016 816
WIRE -800 896 -928 896
WIRE -752 896 -800 896
WIRE -704 896 -752 896
WIRE -576 896 -704 896
WIRE -224 896 -352 896
WIRE -176 896 -224 896
WIRE -128 896 -176 896
WIRE 0 896 -128 896
WIRE 1168 896 1040 896
WIRE 1216 896 1168 896
WIRE 1264 896 1216 896
WIRE 1392 896 1264 896
WIRE 1744 896 1616 896
WIRE 1792 896 1744 896
WIRE 1840 896 1792 896
WIRE 1968 896 1840 896
WIRE -752 928 -752 896
WIRE -448 928 -752 928
WIRE -176 928 -176 896
WIRE -16 928 -176 928
WIRE 1216 928 1216 896
WIRE 1520 928 1216 928
WIRE 1792 928 1792 896
WIRE 1952 928 1792 928
WIRE -752 944 -752 928
WIRE -176 944 -176 928
WIRE 1216 944 1216 928
WIRE 1792 944 1792 928
WIRE -976 1024 -976 816
WIRE -800 1024 -976 1024
WIRE -432 1024 -432 816
WIRE -224 1024 -432 1024
WIRE 992 1024 992 816
WIRE 1168 1024 992 1024
WIRE 1536 1024 1536 816
WIRE 1744 1024 1536 1024
WIRE -800 1120 -832 1120
WIRE -224 1120 -256 1120
WIRE 1168 1120 1136 1120
WIRE 1744 1120 1712 1120
WIRE -432 1152 -432 1024
WIRE -432 1152 -1008 1152
WIRE 1536 1152 1536 1024
WIRE 1536 1152 960 1152
WIRE -800 1216 -832 1216
WIRE -224 1216 -256 1216
WIRE 1168 1216 1136 1216
WIRE 1744 1216 1712 1216
WIRE -800 1312 -832 1312
WIRE -224 1312 -256 1312
WIRE 1168 1312 1136 1312
WIRE 1744 1312 1712 1312
WIRE -752 1344 -752 1328
WIRE -176 1344 -176 1328
WIRE 1216 1344 1216 1328
WIRE 1792 1344 1792 1328
WIRE -16 1360 -16 928
WIRE 208 1360 -16 1360
WIRE 1952 1360 1952 928
WIRE 2176 1360 1952 1360
WIRE -448 1376 -448 928
WIRE 160 1376 -448 1376
WIRE 1520 1376 1520 928
WIRE 2128 1376 1520 1376
WIRE 144 1392 -448 1392
WIRE 2112 1392 1520 1392
WIRE -800 1472 -928 1472
WIRE -752 1472 -752 1424
WIRE -752 1472 -800 1472
WIRE -704 1472 -752 1472
WIRE -576 1472 -704 1472
WIRE -224 1472 -352 1472
WIRE -176 1472 -176 1424
WIRE -176 1472 -224 1472
WIRE -128 1472 -176 1472
WIRE 0 1472 -128 1472
WIRE 1168 1472 1040 1472
WIRE 1216 1472 1216 1424
WIRE 1216 1472 1168 1472
WIRE 1264 1472 1216 1472
WIRE 1392 1472 1264 1472
WIRE 1744 1472 1616 1472
WIRE 1792 1472 1792 1424
WIRE 1792 1472 1744 1472
WIRE 1840 1472 1792 1472
WIRE 1968 1472 1840 1472
WIRE -976 1488 -1008 1488
WIRE -496 1488 -528 1488
WIRE -400 1488 -432 1488
WIRE 80 1488 48 1488
WIRE 992 1488 960 1488
WIRE 1472 1488 1440 1488
WIRE 1568 1488 1536 1488
WIRE 2048 1488 2016 1488
WIRE -800 1568 -928 1568
WIRE -752 1568 -800 1568
WIRE -704 1568 -752 1568
WIRE -576 1568 -704 1568
WIRE -224 1568 -352 1568
WIRE -176 1568 -224 1568
WIRE -128 1568 -176 1568
WIRE 0 1568 -128 1568
WIRE 1168 1568 1040 1568
WIRE 1216 1568 1168 1568
WIRE 1264 1568 1216 1568
WIRE 1392 1568 1264 1568
WIRE 1744 1568 1616 1568
WIRE 1792 1568 1744 1568
WIRE 1840 1568 1792 1568
WIRE 1968 1568 1840 1568
WIRE -752 1600 -752 1568
WIRE -448 1600 -448 1392
WIRE -448 1600 -752 1600
WIRE -176 1600 -176 1568
WIRE -80 1600 -176 1600
WIRE 144 1600 144 1392
WIRE 144 1600 16 1600
WIRE 1216 1600 1216 1568
WIRE 1520 1600 1520 1392
WIRE 1520 1600 1216 1600
WIRE 1792 1600 1792 1568
WIRE 1888 1600 1792 1600
WIRE 2112 1600 2112 1392
WIRE 2112 1600 1984 1600
WIRE -752 1616 -752 1600
WIRE -176 1616 -176 1600
WIRE 1216 1616 1216 1600
WIRE 1792 1616 1792 1600
WIRE 160 1664 160 1376
WIRE 160 1664 112 1664
WIRE 2128 1664 2128 1376
WIRE 2128 1664 2080 1664
WIRE -976 1696 -976 1488
WIRE -800 1696 -976 1696
WIRE -432 1696 -432 1488
WIRE -224 1696 -432 1696
WIRE 992 1696 992 1488
WIRE 1168 1696 992 1696
WIRE 1536 1696 1536 1488
WIRE 1744 1696 1536 1696
WIRE 64 1712 -32 1712
WIRE 160 1712 64 1712
WIRE 256 1712 160 1712
WIRE 304 1712 304 1664
WIRE 304 1712 256 1712
WIRE 352 1712 304 1712
WIRE 448 1712 352 1712
WIRE 544 1712 448 1712
WIRE 640 1712 544 1712
WIRE 2032 1712 1936 1712
WIRE 2128 1712 2032 1712
WIRE 2224 1712 2128 1712
WIRE 2272 1712 2272 1664
WIRE 2272 1712 2224 1712
WIRE 2320 1712 2272 1712
WIRE 2416 1712 2320 1712
WIRE 2512 1712 2416 1712
WIRE 2608 1712 2512 1712
WIRE -80 1728 -80 1600
WIRE 16 1728 16 1600
WIRE 112 1728 112 1664
WIRE 208 1728 208 1360
WIRE 1888 1728 1888 1600
WIRE 1984 1728 1984 1600
WIRE 2080 1728 2080 1664
WIRE 2176 1728 2176 1360
WIRE -800 1792 -832 1792
WIRE -224 1792 -256 1792
WIRE 1168 1792 1136 1792
WIRE 1744 1792 1712 1792
WIRE 64 1808 -32 1808
WIRE 160 1808 64 1808
WIRE 256 1808 160 1808
WIRE 304 1808 256 1808
WIRE 352 1808 304 1808
WIRE 448 1808 352 1808
WIRE 544 1808 448 1808
WIRE 640 1808 544 1808
WIRE 2032 1808 1936 1808
WIRE 2128 1808 2032 1808
WIRE 2224 1808 2128 1808
WIRE 2272 1808 2224 1808
WIRE 2320 1808 2272 1808
WIRE 2416 1808 2320 1808
WIRE 2512 1808 2416 1808
WIRE 2608 1808 2512 1808
WIRE -432 1824 -432 1696
WIRE -432 1824 -1008 1824
WIRE 1536 1824 1536 1696
WIRE 1536 1824 960 1824
WIRE 112 1840 112 1728
WIRE 192 1840 112 1840
WIRE 304 1840 304 1808
WIRE 736 1840 304 1840
WIRE 2080 1840 2080 1728
WIRE 2160 1840 2080 1840
WIRE 2272 1840 2272 1808
WIRE 2704 1840 2272 1840
WIRE 16 1856 16 1728
WIRE 176 1856 16 1856
WIRE 304 1856 304 1840
WIRE 1984 1856 1984 1728
WIRE 2144 1856 1984 1856
WIRE 2272 1856 2272 1840
WIRE -80 1872 -80 1728
WIRE 160 1872 -80 1872
WIRE 496 1872 496 1728
WIRE 496 1872 416 1872
WIRE 1888 1872 1888 1728
WIRE 2128 1872 1888 1872
WIRE 2464 1872 2464 1728
WIRE 2464 1872 2384 1872
WIRE -800 1888 -832 1888
WIRE -224 1888 -256 1888
WIRE 592 1888 592 1728
WIRE 592 1888 432 1888
WIRE 1168 1888 1136 1888
WIRE 1744 1888 1712 1888
WIRE 2560 1888 2560 1728
WIRE 2560 1888 2400 1888
WIRE 688 1904 688 1728
WIRE 688 1904 448 1904
WIRE 2656 1904 2656 1728
WIRE 2656 1904 2416 1904
WIRE 208 1936 208 1728
WIRE 256 1936 208 1936
WIRE 2176 1936 2176 1728
WIRE 2224 1936 2176 1936
WIRE -800 1984 -832 1984
WIRE -224 1984 -256 1984
WIRE 1168 1984 1136 1984
WIRE 1744 1984 1712 1984
WIRE -752 2016 -752 2000
WIRE -176 2016 -176 2000
WIRE 1216 2016 1216 2000
WIRE 1792 2016 1792 2000
WIRE 192 2032 192 1840
WIRE 256 2032 192 2032
WIRE 2160 2032 2160 1840
WIRE 2224 2032 2160 2032
WIRE 176 2128 176 1856
WIRE 256 2128 176 2128
WIRE 2144 2128 2144 1856
WIRE 2224 2128 2144 2128
WIRE -800 2144 -928 2144
WIRE -752 2144 -752 2096
WIRE -752 2144 -800 2144
WIRE -704 2144 -752 2144
WIRE -576 2144 -704 2144
WIRE -224 2144 -352 2144
WIRE -176 2144 -176 2096
WIRE -176 2144 -224 2144
WIRE -128 2144 -176 2144
WIRE 0 2144 -128 2144
WIRE 1168 2144 1040 2144
WIRE 1216 2144 1216 2096
WIRE 1216 2144 1168 2144
WIRE 1264 2144 1216 2144
WIRE 1392 2144 1264 2144
WIRE 1744 2144 1616 2144
WIRE 1792 2144 1792 2096
WIRE 1792 2144 1744 2144
WIRE 1840 2144 1792 2144
WIRE 1968 2144 1840 2144
WIRE -976 2160 -1008 2160
WIRE -496 2160 -528 2160
WIRE -400 2160 -432 2160
WIRE 80 2160 48 2160
WIRE 992 2160 960 2160
WIRE 1472 2160 1440 2160
WIRE 1568 2160 1536 2160
WIRE 2048 2160 2016 2160
WIRE 160 2224 160 1872
WIRE 256 2224 160 2224
WIRE 2128 2224 2128 1872
WIRE 2224 2224 2128 2224
WIRE -800 2240 -928 2240
WIRE -752 2240 -800 2240
WIRE -704 2240 -752 2240
WIRE -576 2240 -704 2240
WIRE -224 2240 -352 2240
WIRE -176 2240 -224 2240
WIRE -128 2240 -176 2240
WIRE 0 2240 -128 2240
WIRE 1168 2240 1040 2240
WIRE 1216 2240 1168 2240
WIRE 1264 2240 1216 2240
WIRE 1392 2240 1264 2240
WIRE 1744 2240 1616 2240
WIRE 1792 2240 1744 2240
WIRE 1840 2240 1792 2240
WIRE 1968 2240 1840 2240
WIRE -752 2272 -752 2240
WIRE -448 2272 -752 2272
WIRE -176 2272 -176 2240
WIRE 208 2272 -176 2272
WIRE 1216 2272 1216 2240
WIRE 1520 2272 1216 2272
WIRE 1792 2272 1792 2240
WIRE 2176 2272 1792 2272
WIRE -752 2288 -752 2272
WIRE -176 2288 -176 2272
WIRE 1216 2288 1216 2272
WIRE 1792 2288 1792 2272
WIRE 400 2320 400 1728
WIRE 400 2320 352 2320
WIRE 464 2320 400 2320
WIRE 2368 2320 2368 1728
WIRE 2368 2320 2320 2320
WIRE 2432 2320 2368 2320
WIRE -976 2368 -976 2160
WIRE -800 2368 -976 2368
WIRE -432 2368 -432 2160
WIRE -224 2368 -432 2368
WIRE 992 2368 992 2160
WIRE 1168 2368 992 2368
WIRE 1536 2368 1536 2160
WIRE 1744 2368 1536 2368
WIRE 416 2416 416 1872
WIRE 416 2416 352 2416
WIRE 480 2416 416 2416
WIRE 2384 2416 2384 1872
WIRE 2384 2416 2320 2416
WIRE 2448 2416 2384 2416
WIRE -800 2464 -832 2464
WIRE -224 2464 -256 2464
WIRE 1168 2464 1136 2464
WIRE 1744 2464 1712 2464
WIRE -432 2496 -432 2368
WIRE -432 2496 -1008 2496
WIRE 1536 2496 1536 2368
WIRE 1536 2496 960 2496
WIRE 432 2512 432 1888
WIRE 432 2512 352 2512
WIRE 496 2512 432 2512
WIRE 2400 2512 2400 1888
WIRE 2400 2512 2320 2512
WIRE 2464 2512 2400 2512
WIRE -800 2560 -832 2560
WIRE -224 2560 -256 2560
WIRE 1168 2560 1136 2560
WIRE 1744 2560 1712 2560
WIRE 448 2608 448 1904
WIRE 448 2608 352 2608
WIRE 512 2608 448 2608
WIRE 2416 2608 2416 1904
WIRE 2416 2608 2320 2608
WIRE 2480 2608 2416 2608
WIRE 304 2640 304 2624
WIRE 2272 2640 2272 2624
WIRE -800 2656 -832 2656
WIRE -224 2656 -256 2656
WIRE 1168 2656 1136 2656
WIRE 1744 2656 1712 2656
WIRE -752 2688 -752 2672
WIRE -176 2688 -176 2672
WIRE 208 2688 208 2272
WIRE 464 2688 464 2320
WIRE 464 2688 208 2688
WIRE 1216 2688 1216 2672
WIRE 1792 2688 1792 2672
WIRE 2176 2688 2176 2272
WIRE 2432 2688 2432 2320
WIRE 2432 2688 2176 2688
WIRE -448 2704 -448 2272
WIRE 480 2704 480 2416
WIRE 480 2704 -448 2704
WIRE 1520 2704 1520 2272
WIRE 2448 2704 2448 2416
WIRE 2448 2704 1520 2704
WIRE 496 2720 496 2512
WIRE 496 2720 -448 2720
WIRE 2464 2720 2464 2512
WIRE 2464 2720 1520 2720
WIRE 512 2736 512 2608
WIRE 512 2736 256 2736
WIRE 2480 2736 2480 2608
WIRE 2480 2736 2224 2736
WIRE -800 2816 -928 2816
WIRE -752 2816 -752 2768
WIRE -752 2816 -800 2816
WIRE -704 2816 -752 2816
WIRE -576 2816 -704 2816
WIRE -224 2816 -352 2816
WIRE -176 2816 -176 2768
WIRE -176 2816 -224 2816
WIRE -128 2816 -176 2816
WIRE 0 2816 -128 2816
WIRE 1168 2816 1040 2816
WIRE 1216 2816 1216 2768
WIRE 1216 2816 1168 2816
WIRE 1264 2816 1216 2816
WIRE 1392 2816 1264 2816
WIRE 1744 2816 1616 2816
WIRE 1792 2816 1792 2768
WIRE 1792 2816 1744 2816
WIRE 1840 2816 1792 2816
WIRE 1968 2816 1840 2816
WIRE -976 2832 -1008 2832
WIRE -496 2832 -528 2832
WIRE -400 2832 -432 2832
WIRE 80 2832 48 2832
WIRE 992 2832 960 2832
WIRE 1472 2832 1440 2832
WIRE 1568 2832 1536 2832
WIRE 2048 2832 2016 2832
WIRE -800 2912 -928 2912
WIRE -752 2912 -800 2912
WIRE -704 2912 -752 2912
WIRE -576 2912 -704 2912
WIRE -224 2912 -352 2912
WIRE -176 2912 -224 2912
WIRE -128 2912 -176 2912
WIRE 0 2912 -128 2912
WIRE 1168 2912 1040 2912
WIRE 1216 2912 1168 2912
WIRE 1264 2912 1216 2912
WIRE 1392 2912 1264 2912
WIRE 1744 2912 1616 2912
WIRE 1792 2912 1744 2912
WIRE 1840 2912 1792 2912
WIRE 1968 2912 1840 2912
WIRE -752 2944 -752 2912
WIRE -448 2944 -448 2720
WIRE -448 2944 -752 2944
WIRE -176 2944 -176 2912
WIRE 256 2944 256 2736
WIRE 256 2944 -176 2944
WIRE 1216 2944 1216 2912
WIRE 1520 2944 1520 2720
WIRE 1520 2944 1216 2944
WIRE 1792 2944 1792 2912
WIRE 2224 2944 2224 2736
WIRE 2224 2944 1792 2944
WIRE -752 2960 -752 2944
WIRE -176 2960 -176 2944
WIRE 1216 2960 1216 2944
WIRE 1792 2960 1792 2944
WIRE -976 3040 -976 2832
WIRE -800 3040 -976 3040
WIRE -432 3040 -432 2832
WIRE -224 3040 -432 3040
WIRE 992 3040 992 2832
WIRE 1168 3040 992 3040
WIRE 1536 3040 1536 2832
WIRE 1744 3040 1536 3040
WIRE -800 3136 -832 3136
WIRE -224 3136 -256 3136
WIRE 1168 3136 1136 3136
WIRE 1744 3136 1712 3136
WIRE -432 3168 -432 3040
WIRE -432 3168 -1008 3168
WIRE 1536 3168 1536 3040
WIRE 1536 3168 960 3168
WIRE -800 3232 -832 3232
WIRE -224 3232 -256 3232
WIRE 1168 3232 1136 3232
WIRE 1744 3232 1712 3232
WIRE -800 3328 -832 3328
WIRE -224 3328 -256 3328
WIRE 1168 3328 1136 3328
WIRE 1744 3328 1712 3328
WIRE -752 3360 -752 3344
WIRE -176 3360 -176 3344
WIRE 1216 3360 1216 3344
WIRE 1792 3360 1792 3344
FLAG -2592 80 0
FLAG -2592 -64 s1
IOPIN -2592 -64 In
FLAG -1328 480 0
FLAG -1328 336 or1
IOPIN -1328 336 In
FLAG -1408 480 0
FLAG -1408 336 and1
IOPIN -1408 336 In
FLAG -2352 -192 0
FLAG -2352 -448 Vdd
FLAG -2320 -320 _s0
IOPIN -2320 -320 Out
FLAG -2480 -320 s0
IOPIN -2480 -320 In
FLAG -2592 384 0
FLAG -2592 240 s2
IOPIN -2592 240 In
FLAG -2352 128 0
FLAG -2352 -128 Vdd
FLAG -2320 0 _s1
IOPIN -2320 0 Out
FLAG -2480 0 s1
IOPIN -2480 0 In
FLAG -1488 480 0
FLAG -1488 336 sub1
IOPIN -1488 336 In
FLAG -1568 480 0
FLAG -1568 336 add1
IOPIN -1568 336 In
FLAG -2592 -240 0
FLAG -2592 -384 s0
IOPIN -2592 -384 In
FLAG -1328 736 0
FLAG -1328 592 shift1
IOPIN -1328 592 In
FLAG -1408 736 0
FLAG -1408 592 inc1
IOPIN -1408 592 In
FLAG -1488 736 0
FLAG -1488 592 xor1
IOPIN -1488 592 In
FLAG -1568 736 0
FLAG -1568 592 not1
IOPIN -1568 592 In
FLAG -2352 448 0
FLAG -2352 192 Vdd
FLAG -2320 320 _s2
IOPIN -2320 320 Out
FLAG -2480 320 s2
IOPIN -2480 320 In
FLAG -752 -2096 Vdd
FLAG -1008 -2032 add0
IOPIN -1008 -2032 In
FLAG -656 -2032 _s1
IOPIN -656 -2032 In
FLAG -832 -1728 _s0
IOPIN -832 -1728 In
FLAG -832 -1632 _s1
IOPIN -832 -1632 In
FLAG -496 -2032 _s2
IOPIN -496 -2032 In
FLAG -752 -1504 0
FLAG -832 -1536 _s2
IOPIN -832 -1536 In
FLAG -848 -2032 _s0
IOPIN -848 -2032 In
FLAG -752 -1424 Vdd
FLAG -1008 -1360 sub0
IOPIN -1008 -1360 In
FLAG -656 -1360 _s1
IOPIN -656 -1360 In
FLAG -832 -1056 _s0
IOPIN -832 -1056 In
FLAG -832 -960 _s1
IOPIN -832 -960 In
FLAG -496 -1360 s2
IOPIN -496 -1360 In
FLAG -752 -832 0
FLAG -832 -864 s2
IOPIN -832 -864 In
FLAG -848 -1360 _s0
IOPIN -848 -1360 In
FLAG -752 -752 Vdd
FLAG -1008 -688 and0
IOPIN -1008 -688 In
FLAG -656 -688 s1
IOPIN -656 -688 In
FLAG -832 -384 _s0
IOPIN -832 -384 In
FLAG -832 -288 s1
IOPIN -832 -288 In
FLAG -496 -688 _s2
IOPIN -496 -688 In
FLAG -752 -160 0
FLAG -832 -192 _s2
IOPIN -832 -192 In
FLAG -848 -688 _s0
IOPIN -848 -688 In
FLAG -752 -80 Vdd
FLAG -1008 -16 or0
IOPIN -1008 -16 In
FLAG -656 -16 s1
IOPIN -656 -16 In
FLAG -832 288 _s0
IOPIN -832 288 In
FLAG -832 384 s1
IOPIN -832 384 In
FLAG -496 -16 s2
IOPIN -496 -16 In
FLAG -752 512 0
FLAG -832 480 s2
IOPIN -832 480 In
FLAG -848 -16 _s0
IOPIN -848 -16 In
FLAG -176 -2096 Vdd
FLAG -1008 -1696 not0
IOPIN -1008 -1696 In
FLAG -80 -2032 _s1
IOPIN -80 -2032 In
FLAG -256 -1728 s0
IOPIN -256 -1728 In
FLAG -256 -1632 _s1
IOPIN -256 -1632 In
FLAG 80 -2032 _s2
IOPIN 80 -2032 In
FLAG -176 -1504 0
FLAG -256 -1536 _s2
IOPIN -256 -1536 In
FLAG -272 -2032 s0
IOPIN -272 -2032 In
FLAG -176 -1424 Vdd
FLAG -1008 -1024 xor0
IOPIN -1008 -1024 In
FLAG -80 -1360 _s1
IOPIN -80 -1360 In
FLAG -256 -1056 s0
IOPIN -256 -1056 In
FLAG -256 -960 _s1
IOPIN -256 -960 In
FLAG 80 -1360 s2
IOPIN 80 -1360 In
FLAG -176 -832 0
FLAG -256 -864 s2
IOPIN -256 -864 In
FLAG -272 -1360 s0
IOPIN -272 -1360 In
FLAG -176 -752 Vdd
FLAG -1008 -352 inc0
IOPIN -1008 -352 In
FLAG -80 -688 s1
IOPIN -80 -688 In
FLAG -256 -384 s0
IOPIN -256 -384 In
FLAG -256 -288 s1
IOPIN -256 -288 In
FLAG 80 -688 _s2
IOPIN 80 -688 In
FLAG -176 -160 0
FLAG -256 -192 _s2
IOPIN -256 -192 In
FLAG -272 -688 s0
IOPIN -272 -688 In
FLAG -176 -80 Vdd
FLAG -1008 320 shift0
IOPIN -1008 320 In
FLAG -80 -16 s1
IOPIN -80 -16 In
FLAG -256 288 s0
IOPIN -256 288 In
FLAG -256 384 s1
IOPIN -256 384 In
FLAG 80 -16 s2
IOPIN 80 -16 In
FLAG -176 512 0
FLAG -256 480 s2
IOPIN -256 480 In
FLAG -272 -16 s0
IOPIN -272 -16 In
FLAG 304 -1184 Vdd
FLAG 736 -1008 0out
IOPIN 736 -1008 Out
FLAG 304 -208 0
FLAG -2096 0 0
FLAG -2096 -240 Vdd
FLAG -752 752 Vdd
FLAG -1008 816 add2
IOPIN -1008 816 In
FLAG -656 816 _s1
IOPIN -656 816 In
FLAG -832 1120 _s0
IOPIN -832 1120 In
FLAG -832 1216 _s1
IOPIN -832 1216 In
FLAG -496 816 _s2
IOPIN -496 816 In
FLAG -752 1344 0
FLAG -832 1312 _s2
IOPIN -832 1312 In
FLAG -848 816 _s0
IOPIN -848 816 In
FLAG -752 1424 Vdd
FLAG -1008 1488 sub2
IOPIN -1008 1488 In
FLAG -656 1488 _s1
IOPIN -656 1488 In
FLAG -832 1792 _s0
IOPIN -832 1792 In
FLAG -832 1888 _s1
IOPIN -832 1888 In
FLAG -496 1488 s2
IOPIN -496 1488 In
FLAG -752 2016 0
FLAG -832 1984 s2
IOPIN -832 1984 In
FLAG -848 1488 _s0
IOPIN -848 1488 In
FLAG -752 2096 Vdd
FLAG -1008 2160 and2
IOPIN -1008 2160 In
FLAG -656 2160 s1
IOPIN -656 2160 In
FLAG -832 2464 _s0
IOPIN -832 2464 In
FLAG -832 2560 s1